@<TRIPOS>MOLECULE
CHO
   24    24     1     0     0
SMALL
bcc


@<TRIPOS>ATOM
      1 C           52.8110    23.8380    44.0360 ce         1 CHO      -0.149200
      2 C1          52.1420    25.1360    43.7000 ce         1 CHO      -0.081000
      3 C2          50.9500    25.4520    44.2350 c2         1 CHO      -0.248200
      4 C3          50.2080    24.4230    45.0480 c3         1 CHO       0.131300
      5 O           49.6170    23.5060    44.1620 oh         1 CHO      -0.611800
      6 C4          51.1940    23.6470    45.9410 c3         1 CHO       0.157300
      7 C5          52.3460    23.1240    45.0970 c2         1 CHO      -0.174200
      8 O1          51.6160    24.4030    47.0330 os         1 CHO      -0.351900
      9 C6          52.3750    25.5340    47.0290 ce         1 CHO       0.022900
     10 C7          53.6680    25.4950    46.6620 c2         1 CHO      -0.311000
     11 C8          53.9960    23.4070    43.2320 c          1 CHO       0.906800
     12 O2          54.3730    24.1090    42.3060 o          1 CHO      -0.852300
     13 O3          54.6770    22.2650    43.4810 o          1 CHO      -0.852300
     14 C9          51.7530    26.8080    47.4810 c          1 CHO       0.914800
     15 O4          50.4600    26.8440    47.8700 o          1 CHO      -0.840800
     16 O5          52.4030    27.8410    47.5030 o          1 CHO      -0.840800
     17 H           48.8190    23.9530    43.7740 ho         1 CHO       0.374000
     18 H1          52.6320    25.8500    43.0450 ha         1 CHO       0.142000
     19 H2          50.4970    26.4190    44.0370 ha         1 CHO       0.104000
     20 H3          49.4060    24.8870    45.6670 h1         1 CHO       0.151700
     21 H4          50.6420    22.7780    46.3600 h1         1 CHO       0.051700
     22 H5          52.8030    22.1940    45.4090 ha         1 CHO       0.141000
     23 H6          54.2850    26.3880    46.6690 ha         1 CHO       0.109500
     24 H7          54.1410    24.5670    46.3650 ha         1 CHO       0.109500
@<TRIPOS>BOND
     1     1     2 1   
     2     1     7 2   
     3     1    11 1   
     4     2     3 2   
     5     2    18 1   
     6     3     4 1   
     7     3    19 1   
     8     4     5 1   
     9     4     6 1   
    10     4    20 1   
    11     5    17 1   
    12     6     7 1   
    13     6     8 1   
    14     6    21 1   
    15     7    22 1   
    16     8     9 1   
    17     9    10 2   
    18     9    14 1   
    19    10    23 1   
    20    10    24 1   
    21    11    12 1   
    22    11    13 1   
    23    14    15 1   
    24    14    16 1   
@<TRIPOS>SUBSTRUCTURE
     1 CHO         1 TEMP              0 ****  ****    0 ROOT
